<?xml version="1.0" encoding="UTF-8"?>
<!DOCTYPE network SYSTEM "http://www.matsim.org/files/dtd/network_v2.dtd">
<network>

<!-- ====================================================================== -->

	<nodes>
		<node id="1114538640" x="196637.2814847164" y="2494672.1084913723" >
		</node>
		<node id="1114538641" x="196546.23237699876" y="2494673.4628631584" >
		</node>
		<node id="1114538642" x="196580.03084751102" y="2494673.150150967" >
		</node>
		<node id="1114538647" x="196562.92092664435" y="2494703.0492490404" >
		</node>
		<node id="1116467136" x="196375.2492205234" y="2494673.293417097" >
		</node>
		<node id="1116469157" x="196001.86660988344" y="2495165.3073609485" >
		</node>
		<node id="1116469164" x="196343.7872178976" y="2495238.3288971195" >
		</node>
		<node id="1116469170" x="196142.5919625865" y="2494870.1906574806" >
		</node>
		<node id="1116469184" x="196323.62527742406" y="2495227.8428277494" >
		</node>
		<node id="1116469194" x="196681.57154630322" y="2494844.932671821" >
		</node>
		<node id="1116469195" x="196343.53426429292" y="2495214.5917320093" >
		</node>
		<node id="1116469197" x="196681.4718873023" y="2494889.958142302" >
		</node>
		<node id="1116469213" x="196341.43529996945" y="2494740.5659522354" >
		</node>
		<node id="1116469217" x="196000.27666393382" y="2494990.242633202" >
		</node>
		<node id="1116501237" x="195952.71047403797" y="2495861.3119045394" >
		</node>
		<node id="1116501266" x="195948.59273522574" y="2495887.3525212463" >
		</node>
		<node id="1491845282" x="195197.55317526235" y="2494628.0192806167" >
		</node>
		<node id="1491845427" x="195931.25705645652" y="2495014.6634302195" >
		</node>
		<node id="1491845432" x="196022.7887082412" y="2495021.121004377" >
		</node>
		<node id="1491845466" x="195912.82491928182" y="2495335.060937439" >
		</node>
		<node id="1491845479" x="195958.3830389419" y="2495347.8702926678" >
		</node>
		<node id="1491845494" x="195978.74856640084" y="2495374.357379383" >
		</node>
		<node id="1783922893" x="197630.19718965644" y="2495951.316013811" >
		</node>
		<node id="1812925769" x="198010.24676456675" y="2495296.5684500667" >
		</node>
		<node id="1812925852" x="197887.99520782952" y="2495310.532724849" >
		</node>
		<node id="1812925891" x="197905.1141386245" y="2495310.861110782" >
		</node>
		<node id="1812925899" x="198168.34298292676" y="2495356.129986864" >
		</node>
		<node id="1812925925" x="197904.67720493616" y="2495293.8779916554" >
		</node>
		<node id="1933843897" x="197891.65468169586" y="2496585.217174313" >
		</node>
		<node id="1933843910" x="197181.41848210542" y="2496632.1395981056" >
		</node>
		<node id="1933843924" x="197183.15914310765" y="2496828.9580069548" >
		</node>
		<node id="1982874921" x="197691.59032920253" y="2495801.6484526144" >
		</node>
		<node id="1982876353" x="198184.66870804917" y="2494921.9509099415" >
		</node>
		<node id="1982876355" x="198174.5989459823" y="2495342.8171870112" >
		</node>
		<node id="1982876360" x="198008.12434401526" y="2494885.2959667807" >
		</node>
		<node id="1982876362" x="198175.0290987799" y="2495154.5592074515" >
		</node>
		<node id="1982876363" x="198183.9825259216" y="2494884.9219022067" >
		</node>
		<node id="1982876367" x="198222.9184050876" y="2494985.807803007" >
		</node>
		<node id="1982876368" x="198173.4044757667" y="2494774.6672671633" >
		</node>
		<node id="1982876369" x="198010.29799845128" y="2495133.655560293" >
		</node>
		<node id="1982876589" x="198283.57724129868" y="2495434.1693121777" >
		</node>
		<node id="1982876590" x="197903.32091871602" y="2495116.5169796376" >
		</node>
		<node id="1982876592" x="198360.4851135289" y="2495181.707973469" >
		</node>
		<node id="1982876596" x="198335.1090220377" y="2495729.8184393966" >
		</node>
		<node id="1982879349" x="196910.40880392003" y="2495312.7196526197" >
		</node>
		<node id="1982879350" x="196910.33045638388" y="2495298.832875275" >
		</node>
		<node id="1982879352" x="195976.49956185842" y="2495315.345548446" >
		</node>
		<node id="1982884401" x="196001.51326073572" y="2494900.7802418415" >
		</node>
		<node id="1982884838" x="196700.73153061973" y="2495083.715484527" >
		</node>
		<node id="2044316560" x="197180.86236109852" y="2495312.0968136895" >
		</node>
		<node id="2044316562" x="197180.77006161225" y="2495297.4898808557" >
		</node>
		<node id="2044316564" x="196911.27269545512" y="2495538.628970315" >
		</node>
		<node id="2044316566" x="197388.05261309358" y="2495536.655081448" >
		</node>
		<node id="2044316568" x="197404.86340224918" y="2495534.938408248" >
		</node>
		<node id="2044316570" x="197404.95870783954" y="2495568.000139647" >
		</node>
		<node id="2044316573" x="197179.35650380875" y="2495081.6008595047" >
		</node>
		<node id="2044316574" x="197182.32998596592" y="2495537.494928764" >
		</node>
		<node id="2298877655" x="197966.85459918523" y="2495509.5240927683" >
		</node>
		<node id="2319202434" x="198419.48588387325" y="2496409.866979783" >
		</node>
		<node id="2319202438" x="198440.42067255097" y="2496411.1184011074" >
		</node>
		<node id="2319202440" x="197909.76612911845" y="2496411.052962691" >
		</node>
		<node id="2367560889" x="198067.36021915963" y="2496547.167787616" >
		</node>
		<node id="2367560891" x="197890.98902839987" y="2496411.1563836797" >
		</node>
		<node id="2367560892" x="197646.3066404051" y="2496412.3370191003" >
		</node>
		<node id="2367560893" x="198203.60882100434" y="2496713.641210841" >
		</node>
		<node id="2367560894" x="196689.72299955803" y="2496416.2951885806" >
		</node>
		<node id="2367560898" x="198087.60217473737" y="2496396.426912479" >
		</node>
		<node id="2367560899" x="197389.9935959187" y="2496413.1965544694" >
		</node>
		<node id="2367560900" x="198091.36999911943" y="2496743.014778637" >
		</node>
		<node id="2367560903" x="198088.54665348597" y="2496408.855626999" >
		</node>
		<node id="2367560905" x="198298.48810249672" y="2496750.182252057" >
		</node>
		<node id="2367560907" x="197941.2211010732" y="2496687.467008178" >
		</node>
		<node id="2367560911" x="198091.1892300471" y="2496663.6682460057" >
		</node>
		<node id="2367560913" x="196567.98700037628" y="2496416.8382677357" >
		</node>
		<node id="2367560914" x="198249.36709939438" y="2496122.4663820867" >
		</node>
		<node id="2367560915" x="198258.7574956172" y="2496613.411315822" >
		</node>
		<node id="2367560917" x="198369.53644808877" y="2496452.545872696" >
		</node>
		<node id="2367560918" x="198161.1492715702" y="2496548.604547076" >
		</node>
		<node id="2367560919" x="198257.4651687023" y="2496595.3255481925" >
		</node>
		<node id="2367560920" x="198114.6814043841" y="2496558.8508258024" >
		</node>
		<node id="2367560927" x="196347.55427881575" y="2496417.81528176" >
		</node>
		<node id="2367560928" x="198370.62121773808" y="2496612.5765564116" >
		</node>
		<node id="2367560930" x="198127.6881436761" y="2496742.821559843" >
		</node>
		<node id="2367560931" x="198199.46077338647" y="2496657.1280949214" >
		</node>
		<node id="2367560932" x="197407.2079735311" y="2496413.200907118" >
		</node>
		<node id="2367560933" x="198440.1241565484" y="2496400.7385872877" >
		</node>
		<node id="2367560936" x="198085.8627834025" y="2496458.7640473256" >
		</node>
		<node id="2367560937" x="196704.85637098737" y="2496416.2290232303" >
		</node>
		<node id="2367560938" x="196245.63541365886" y="2496418.268292018" >
		</node>
		<node id="2367560939" x="198268.72625466634" y="2496752.374330289" >
		</node>
		<node id="2367560940" x="197939.4566329923" y="2496537.602034013" >
		</node>
		<node id="2367560943" x="198089.57038763067" y="2496441.023313749" >
		</node>
		<node id="2367560945" x="198320.5671614221" y="2496468.5931754815" >
		</node>
		<node id="2367560947" x="198237.28520420787" y="2496466.9377951333" >
		</node>
		<node id="2367560948" x="198246.9909090905" y="2496408.1129860384" >
		</node>
		<node id="2367560950" x="198265.67851469992" y="2496709.9272973705" >
		</node>
		<node id="2367560953" x="198248.60801614012" y="2496396.0994639276" >
		</node>
		<node id="2367574747" x="198004.35858590354" y="2496069.557388488" >
		</node>
		<node id="2367574751" x="198006.4118970798" y="2496165.5927953096" >
		</node>
		<node id="2367574755" x="198066.33373002603" y="2496164.5807610876" >
		</node>
		<node id="2367574793" x="198087.14243590028" y="2496369.380009902" >
		</node>
		<node id="2367574809" x="198250.78714293422" y="2496322.0491579436" >
		</node>
		<node id="2367574810" x="198086.38124532468" y="2496324.3830238315" >
		</node>
		<node id="2367574813" x="198063.66704116407" y="2496008.526752536" >
		</node>
		<node id="2367574818" x="198085.9680879464" y="2496300.2281201887" >
		</node>
		<node id="2367574828" x="197908.7070410098" y="2496167.248535057" >
		</node>
		<node id="2488193951" x="196345.74365737796" y="2495709.198807506" >
		</node>
		<node id="2488193952" x="196471.33388364362" y="2495709.0551782153" >
		</node>
		<node id="2488193954" x="196469.33556484577" y="2495540.195090033" >
		</node>
		<node id="2488193955" x="196516.3476885184" y="2495708.9970069397" >
		</node>
		<node id="2491091193" x="196700.2198640778" y="2494901.315002005" >
		</node>
		<node id="2491091195" x="196143.45133611152" y="2495085.46065167" >
		</node>
		<node id="2491091196" x="197642.5361904768" y="2495067.53508708" >
		</node>
		<node id="2491091203" x="196909.4352491083" y="2495069.2221678654" >
		</node>
		<node id="2491091210" x="196343.1273729324" y="2495070.5396039295" >
		</node>
		<node id="2491091211" x="197179.27531551564" y="2495068.6008956055" >
		</node>
		<node id="2491091214" x="196683.79684119846" y="2495069.795683935" >
		</node>
		<node id="2491091222" x="196037.50800538715" y="2495073.4351123315" >
		</node>
		<node id="2491091227" x="197383.13053902646" y="2495067.776464243" >
		</node>
		<node id="2491091228" x="196563.93043523649" y="2495070.655140151" >
		</node>
		<node id="2491091231" x="196700.82603015087" y="2495069.725517874" >
		</node>
		<node id="2491091232" x="197888.0506402462" y="2494875.6081644134" >
		</node>
		<node id="2491091238" x="197902.52118007466" y="2495066.943078603" >
		</node>
		<node id="2491091242" x="196143.8425010151" y="2495071.3982412703" >
		</node>
		<node id="2491091244" x="197888.3744967648" y="2495066.9774035164" >
		</node>
		<node id="2491091248" x="197403.60606414825" y="2495068.0825537764" >
		</node>
		<node id="2491099046" x="197389.27077798377" y="2496100.142542737" >
		</node>
		<node id="2491099065" x="197411.99938617606" y="2495993.3102722582" >
		</node>
		<node id="2491110034" x="196675.84228988696" y="2495708.8169689253" >
		</node>
		<node id="2525944463" x="195989.37992069812" y="2495703.4238106865" >
		</node>
		<node id="2525944467" x="196022.63687779976" y="2495625.908112955" >
		</node>
		<node id="2525944470" x="196002.5823084293" y="2495691.069694868" >
		</node>
		<node id="2525944474" x="196002.62164617016" y="2495703.9819516223" >
		</node>
		<node id="2525944476" x="195989.26987191918" y="2495691.6213672124" >
		</node>
		<node id="2525989776" x="196069.65763970878" y="2496056.594288626" >
		</node>
		<node id="2525990691" x="196110.2787919441" y="2495861.640556234" >
		</node>
		<node id="2525990692" x="196119.53796736198" y="2495861.789877385" >
		</node>
		<node id="2525990695" x="196003.29445082147" y="2496047.9985758103" >
		</node>
		<node id="2525990696" x="196118.82072459284" y="2495887.9848114178" >
		</node>
		<node id="2525990697" x="196025.44576825254" y="2496116.8914881926" >
		</node>
		<node id="2525990702" x="196041.58975067874" y="2495887.9945764625" >
		</node>
		<node id="2525990703" x="196003.40381511318" y="2496064.966253109" >
		</node>
		<node id="2525990704" x="196044.58843486605" y="2495862.109162392" >
		</node>
		<node id="2526412027" x="196079.61110828893" y="2495711.491943951" >
		</node>
		<node id="2526412028" x="196204.92893882922" y="2495709.0127808265" >
		</node>
		<node id="2526412031" x="196227.81395713182" y="2495724.4547977652" >
		</node>
		<node id="2526412034" x="196250.3205978453" y="2495709.312135673" >
		</node>
		<node id="2526412035" x="196107.3514352654" y="2495710.56620796" >
		</node>
		<node id="2526412036" x="196105.2545117463" y="2495541.6078214995" >
		</node>
		<node id="2526412037" x="196202.97982607066" y="2495541.2265202804" >
		</node>
		<node id="2526412038" x="196249.2376239219" y="2495541.04327533" >
		</node>
		<node id="2526412039" x="196106.56409810245" y="2495632.2612523325" >
		</node>
		<node id="2526412040" x="196203.74794102507" y="2495631.6024036966" >
		</node>
		<node id="2526412041" x="196249.683777995" y="2495631.292481755" >
		</node>
		<node id="2526412042" x="196345.4467440223" y="2495630.640457678" >
		</node>
		<node id="2526412043" x="196470.39555409906" y="2495629.78912065" >
		</node>
		<node id="2530035744" x="196228.2026887198" y="2495790.962970302" >
		</node>
		<node id="2530205713" x="196001.36832031264" y="2495030.844409754" >
		</node>
		<node id="2530205715" x="196000.9145877359" y="2495011.0349433585" >
		</node>
		<node id="2530205721" x="196104.7817661732" y="2495292.866981962" >
		</node>
		<node id="2530205723" x="196036.10127596487" y="2495088.7258020104" >
		</node>
		<node id="2530205725" x="196116.6996338886" y="2495322.2591197514" >
		</node>
		<node id="2530205729" x="196008.93891071196" y="2495030.971722017" >
		</node>
		<node id="2530205731" x="196055.6561194217" y="2495085.678740097" >
		</node>
		<node id="2530205735" x="196115.2890845295" y="2495293.1135816886" >
		</node>
		<node id="2530205739" x="196005.10808213166" y="2495010.652699486" >
		</node>
		<node id="2530205741" x="196056.00301207934" y="2495074.066786611" >
		</node>
		<node id="2530742222" x="198370.2328785344" y="2495533.419845941" >
		</node>
		<node id="2530742224" x="198370.90980043885" y="2495644.966203815" >
		</node>
		<node id="2530742228" x="198245.76134999958" y="2495644.442745544" >
		</node>
		<node id="2530742232" x="198009.54396949272" y="2495311.623186235" >
		</node>
		<node id="2530742238" x="198246.00328559964" y="2495532.5457030744" >
		</node>
		<node id="2530742241" x="198246.06511027802" y="2495506.342076599" >
		</node>
		<node id="2530742246" x="197921.41778270243" y="2495669.7384512294" >
		</node>
		<node id="2530742259" x="197969.22044833226" y="2495668.0668498906" >
		</node>
		<node id="2530742260" x="198285.60557012638" y="2495644.890346455" >
		</node>
		<node id="2530742264" x="198153.6012878003" y="2495618.2444504006" >
		</node>
		<node id="2530742265" x="197945.56910539058" y="2495830.823329989" >
		</node>
		<node id="2530742273" x="198245.37401127483" y="2495733.2104912996" >
		</node>
		<node id="2530742276" x="198286.43858747848" y="2495731.849575274" >
		</node>
		<node id="2530742285" x="198284.52756982995" y="2495532.8751786873" >
		</node>
		<node id="2653610205" x="197608.92722909362" y="2494670.3702303586" >
		</node>
		<node id="2653610235" x="197670.2357901187" y="2494669.928682961" >
		</node>
		<node id="267602640" x="196758.11709437228" y="2495859.4322177893" >
		</node>
		<node id="2750252755" x="196005.80844647536" y="2496301.8979330575" >
		</node>
		<node id="2750252781" x="196346.5263715195" y="2496185.689680279" >
		</node>
		<node id="2750252798" x="196011.48577563098" y="2496227.7433657204" >
		</node>
		<node id="2750252825" x="196042.90281159483" y="2496188.426683173" >
		</node>
		<node id="2750252830" x="196704.47323961486" y="2496186.2417033818" >
		</node>
		<node id="2750252845" x="196566.77124926163" y="2496186.5013523316" >
		</node>
		<node id="2750252851" x="196688.6982651741" y="2496186.154249972" >
		</node>
		<node id="2750252863" x="196244.76166032063" y="2496186.2059453977" >
		</node>
		<node id="2750593251" x="196892.75767591503" y="2495825.993975973" >
		</node>
		<node id="2750593322" x="197300.11845453928" y="2495856.6876143725" >
		</node>
		<node id="2750593369" x="196843.6515498879" y="2495846.1275337506" >
		</node>
		<node id="2750593372" x="197354.70706714963" y="2495896.8776370646" >
		</node>
		<node id="2750593461" x="197324.3169107692" y="2495891.8347613346" >
		</node>
		<node id="2750667613" x="196911.24732252315" y="2495531.0812261407" >
		</node>
		<node id="2750667698" x="196703.69833535794" y="2495531.7750581643" >
		</node>
		<node id="2750667699" x="196682.49975406402" y="2495531.8500309703" >
		</node>
		<node id="2750667703" x="197388.27183496975" y="2495529.4904898144" >
		</node>
		<node id="2750667710" x="196345.07097955985" y="2495532.9857440568" >
		</node>
		<node id="2750667738" x="196002.13344220258" y="2495505.031135917" >
		</node>
		<node id="2750667739" x="197182.28809320898" y="2495530.1470403136" >
		</node>
		<node id="2750667749" x="197887.90875695163" y="2495530.20750306" >
		</node>
		<node id="2750667765" x="196520.40550798154" y="2495532.391468296" >
		</node>
		<node id="2750670857" x="196472.34649019258" y="2495794.6820517355" >
		</node>
		<node id="2750670862" x="196565.8174497194" y="2495957.411828401" >
		</node>
		<node id="2750787454" x="196005.93728460063" y="2496349.4907619343" >
		</node>
		<node id="2750787462" x="196045.40063049743" y="2496419.1604341003" >
		</node>
		<node id="2750787504" x="196007.01701663638" y="2496480.9940327355" >
		</node>
		<node id="2750787506" x="196045.1100346268" y="2496405.000634465" >
		</node>
		<node id="2751377825" x="196690.6583914936" y="2496626.2538157585" >
		</node>
		<node id="2751377835" x="197181.35638554854" y="2496624.2933158753" >
		</node>
		<node id="2751377850" x="197393.24374250136" y="2496623.5516756764" >
		</node>
		<node id="2751377860" x="196569.0891580914" y="2496626.81598383" >
		</node>
		<node id="2751377861" x="197646.11963205197" y="2496622.947839802" >
		</node>
		<node id="2751377863" x="196864.819414949" y="2496625.2859346922" >
		</node>
		<node id="2751377864" x="196705.1944278573" y="2496626.188339413" >
		</node>
		<node id="2751377871" x="196864.84203837044" y="2496633.2106052986" >
		</node>
		<node id="2751377875" x="196246.4338860588" y="2496628.285839127" >
		</node>
		<node id="2751377878" x="196791.12055690755" y="2496633.4581833673" >
		</node>
		<node id="2751377879" x="196791.04139777418" y="2496625.8006423647" >
		</node>
		<node id="2751377883" x="196348.48492994223" y="2496627.8189480966" >
		</node>
		<node id="2751377884" x="197408.85066495487" y="2496623.499008822" >
		</node>
		<node id="2751394424" x="197508.67064782302" y="2495952.1684793825" >
		</node>
		<node id="2751394425" x="197647.205090906" y="2496075.7315348387" >
		</node>
		<node id="2751394426" x="197510.36842646787" y="2496182.1060694237" >
		</node>
		<node id="2751394428" x="197509.9863213139" y="2496623.135444308" >
		</node>
		<node id="2751394430" x="197511.9463232258" y="2496397.0494115767" >
		</node>
		<node id="2751394441" x="197509.5806978888" y="2496076.779150422" >
		</node>
		<node id="2751394442" x="197510.00596101285" y="2496631.4480705606" >
		</node>
		<node id="2751394450" x="197420.39091722085" y="2496077.461060057" >
		</node>
		<node id="2751394452" x="197509.3481036832" y="2496413.0615775026" >
		</node>
		<node id="2751394462" x="197510.60453173646" y="2496826.947288482" >
		</node>
		<node id="2751394470" x="197510.42421095242" y="2496189.642098208" >
		</node>
		<node id="2751405332" x="198152.61920909752" y="2495917.1866132314" >
		</node>
		<node id="2751405336" x="197647.82935024064" y="2496181.6933406866" >
		</node>
		<node id="2751405340" x="197386.26774526574" y="2495187.843151725" >
		</node>
		<node id="2751405355" x="197489.62271960557" y="2495186.7608831306" >
		</node>
		<node id="2751405361" x="197404.75600012235" y="2496182.712632466" >
		</node>
		<node id="2751405381" x="197403.91646706732" y="2495187.3514330643" >
		</node>
		<node id="2751405387" x="197258.9328467889" y="2495297.113167299" >
		</node>
		<node id="2751405391" x="197257.66470046184" y="2495081.2325050062" >
		</node>
		<node id="2751405393" x="197521.0972616729" y="2495079.989734168" >
		</node>
		<node id="2751405409" x="197389.82283614483" y="2496183.0179827823" >
		</node>
		<node id="2751405416" x="197258.29773695837" y="2495189.1229715464" >
		</node>
		<node id="2751405421" x="197489.1889931155" y="2495295.9800732797" >
		</node>
		<node id="277052169" x="197192.5528218777" y="2495915.0151596004" >
		</node>
		<node id="277052181" x="197191.54907393985" y="2495835.9060052056" >
		</node>
		<node id="277185801" x="196245.5834658385" y="2496404.1924655526" >
		</node>
		<node id="277185804" x="196244.79070532776" y="2496194.4408824467" >
		</node>
		<node id="277486596" x="196346.5634629561" y="2496193.8136098175" >
		</node>
		<node id="277486655" x="198419.19231008145" y="2496398.589308656" >
		</node>
		<node id="277673161" x="196904.04434199358" y="2495833.4081558525" >
		</node>
		<node id="277755075" x="196347.49300904834" y="2496403.7839883897" >
		</node>
		<node id="278224602" x="197393.33221004147" y="2496631.696693245" >
		</node>
		<node id="278224610" x="197389.86754453392" y="2496189.988952167" >
		</node>
		<node id="278224617" x="197388.15497276827" y="2495960.960312356" >
		</node>
		<node id="278224619" x="197388.36660356086" y="2495742.8226629114" >
		</node>
		<node id="278224815" x="196701.44967240083" y="2496021.1595874205" >
		</node>
		<node id="278224981" x="196700.5410057871" y="2495674.312181491" >
		</node>
		<node id="278225303" x="196704.80310403055" y="2496401.0227005095" >
		</node>
		<node id="2784870919" x="198420.88599989068" y="2495500.714196294" >
		</node>
		<node id="2784870955" x="198356.8648731223" y="2495420.50445419" >
		</node>
		<node id="2784870973" x="198420.17642581183" y="2495314.0528781046" >
		</node>
		<node id="2784871064" x="198357.83562819537" y="2495389.7164351074" >
		</node>
		<node id="279077972" x="197855.30565305369" y="2495705.2772058547" >
		</node>
		<node id="2868131492" x="196341.614313951" y="2494774.113997691" >
		</node>
		<node id="2868134331" x="196431.5677733812" y="2494705.3332626414" >
		</node>
		<node id="2868134337" x="196564.07405043184" y="2494881.3693737295" >
		</node>
		<node id="2868134344" x="196342.16957503976" y="2494882.9711044794" >
		</node>
		<node id="295527885" x="196566.80801155" y="2496193.0513306404" >
		</node>
		<node id="3085769133" x="196071.37551869336" y="2496112.7015070613" >
		</node>
		<node id="3085769157" x="196244.4770624711" y="2496111.438010629" >
		</node>
		<node id="352965731" x="197902.5160905808" y="2495078.204479384" >
		</node>
		<node id="409380930" x="196704.48869639833" y="2496193.2797948536" >
		</node>
		<node id="409380944" x="196567.9049124366" y="2496401.743337854" >
		</node>
		<node id="409380991" x="196348.5137361657" y="2496636.042803036" >
		</node>
		<node id="409380995" x="196008.15253132104" y="2496600.7470062454" >
		</node>
		<node id="409381010" x="197647.18867405364" y="2496826.21853576" >
		</node>
		<node id="409381222" x="197645.75361358904" y="2496631.024203136" >
		</node>
		<node id="409381230" x="197647.86448379705" y="2496189.2297675265" >
		</node>
		<node id="409381246" x="196246.46515815926" y="2496636.631577994" >
		</node>
		<node id="409392019" x="197715.521133681" y="2494669.4146350753" >
		</node>
		<node id="409392024" x="196909.4883912679" y="2495082.8766734684" >
		</node>
		<node id="409392026" x="197642.18326407764" y="2495079.4240619326" >
		</node>
		<node id="409392062" x="197642.76712261955" y="2494865.2700575055" >
		</node>
		<node id="409392064" x="197641.2998546363" y="2494705.9334872356" >
		</node>
		<node id="409392076" x="196520.40129036095" y="2495539.9952427666" >
		</node>
		<node id="409392077" x="196345.09947770124" y="2495540.6775564435" >
		</node>
		<node id="409392087" x="196343.1932817265" y="2495083.2517737397" >
		</node>
		<node id="409392089" x="196563.84439099056" y="2495084.02424855" >
		</node>
		<node id="409392091" x="196342.0925271074" y="2494868.1310095917" >
		</node>
		<node id="409392095" x="196341.27884844283" y="2494708.1591249183" >
		</node>
		<node id="409392099" x="196564.072722297" y="2494869.3099163794" >
		</node>
		<node id="4127126133" x="196646.21864418458" y="2495891.713117624" >
		</node>
		<node id="4397491510" x="196908.58330224437" y="2494729.5460605677" >
		</node>
		<node id="4397491519" x="197155.18068376725" y="2494673.61991053" >
		</node>
		<node id="4397491521" x="197080.02349780896" y="2494677.2405156847" >
		</node>
		<node id="4397491523" x="196984.8397128922" y="2494677.243964566" >
		</node>
		<node id="4397491532" x="197176.20374940173" y="2494731.4632223425" >
		</node>
		<node id="4397491538" x="197091.80554953084" y="2494684.1574602774" >
		</node>
		<node id="4397491539" x="196949.16798893246" y="2494684.3761683786" >
		</node>
		<node id="4397491540" x="196875.4846076339" y="2494671.364809072" >
		</node>
		<node id="4848290283" x="196805.32157864515" y="2495854.06664204" >
		</node>
		<node id="4848290303" x="196827.91748458432" y="2495538.7997395755" >
		</node>
		<node id="4848304350" x="196737.37908593175" y="2495539.157110511" >
		</node>
		<node id="4848304353" x="196703.74098112626" y="2495580.3446563073" >
		</node>
		<node id="4848304354" x="196682.81490599312" y="2495579.0952511183" >
		</node>
		<node id="4848304357" x="196647.19055695034" y="2495539.5081039784" >
		</node>
		<node id="4848304358" x="196647.46374938177" y="2495531.965530624" >
		</node>
		<node id="4848304361" x="196683.10585031373" y="2495486.9364478327" >
		</node>
		<node id="4848304362" x="196703.1587555057" y="2495487.238795592" >
		</node>
		<node id="4848304365" x="196736.79871984595" y="2495531.6646485426" >
		</node>
		<node id="499236908" x="195985.1674822049" y="2495405.7869147607" >
		</node>
		<node id="499287763" x="196018.52029380423" y="2494871.4698316166" >
		</node>
		<node id="499374672" x="196748.74647527852" y="2494671.6596686323" >
		</node>
		<node id="499383016" x="196682.45253697818" y="2495539.365971026" >
		</node>
		<node id="499383061" x="196684.01441558555" y="2495083.9457528563" >
		</node>
		<node id="499383087" x="196688.7310301694" y="2496193.0257391674" >
		</node>
		<node id="499478354" x="196110.18960116303" y="2495887.834149903" >
		</node>
		<node id="499478446" x="196014.47005649755" y="2496154.8502971916" >
		</node>
		<node id="499478598" x="195936.92518567987" y="2496025.581309348" >
		</node>
		<node id="499478604" x="195990.25817723048" y="2495977.7059802003" >
		</node>
		<node id="499478692" x="196053.84214683477" y="2495724.6267003813" >
		</node>
		<node id="499478697" x="196003.1164055224" y="2495761.2328831316" >
		</node>
		<node id="499478699" x="195988.5740281797" y="2495762.5847986736" >
		</node>
		<node id="499478775" x="195988.12064142607" y="2495566.448629078" >
		</node>
		<node id="499478781" x="196002.62484813965" y="2495572.0029185005" >
		</node>
		<node id="499478798" x="196003.3096025426" y="2495978.5449609584" >
		</node>
		<node id="499478803" x="196052.13695820712" y="2496025.0186926955" >
		</node>
		<node id="499481668" x="196700.65370787907" y="2495299.867576232" >
		</node>
		<node id="499481674" x="196686.50774876692" y="2495299.9362703753" >
		</node>
		<node id="499481679" x="196520.4938022935" y="2495300.765366547" >
		</node>
		<node id="499481685" x="196344.17381498328" y="2495301.644782876" >
		</node>
		<node id="499481688" x="196223.3256156412" y="2495302.249435148" >
		</node>
		<node id="499481698" x="196148.59066122834" y="2495302.6190240984" >
		</node>
		<node id="499481734" x="195938.7264858096" y="2495304.144420715" >
		</node>
		<node id="499481765" x="196001.82468373084" y="2495180.360456817" >
		</node>
		<node id="499481885" x="196103.13416784623" y="2495322.5274676755" >
		</node>
		<node id="499482004" x="196001.9453901266" y="2495429.973012274" >
		</node>
		<node id="499482044" x="196686.54382690263" y="2495313.2364522056" >
		</node>
		<node id="499482065" x="196700.64926033944" y="2495313.201808787" >
		</node>
		<node id="499482070" x="196703.64081565622" y="2495539.291200185" >
		</node>
		<node id="499482288" x="196520.5418536617" y="2495313.621967017" >
		</node>
		<node id="499482291" x="196344.22288889473" y="2495314.024765649" >
		</node>
		<node id="499482295" x="196221.5068074452" y="2495313.890478085" >
		</node>
		<node id="499542312" x="197404.13737608067" y="2496101.1575127803" >
		</node>
		<node id="499542391" x="197773.54508980096" y="2495801.576222373" >
		</node>
		<node id="499542398" x="197562.66727946704" y="2495802.878685426" >
		</node>
		<node id="499542480" x="197734.6968191407" y="2495951.121050512" >
		</node>
		<node id="499542538" x="197405.05444443785" y="2495604.741756256" >
		</node>
		<node id="499542582" x="197405.0992148065" y="2495744.4659561026" >
		</node>
		<node id="499542590" x="197404.95836576505" y="2495961.5048614815" >
		</node>
		<node id="499542609" x="197500.44326758658" y="2495831.8916996336" >
		</node>
		<node id="499542869" x="197404.81645168597" y="2496189.960391299" >
		</node>
		<node id="499542875" x="197407.05488672323" y="2496398.1185668036" >
		</node>
		<node id="499542878" x="197408.95992555423" y="2496631.654699591" >
		</node>
		<node id="499542953" x="197388.20949527732" y="2495604.1979736285" >
		</node>
		<node id="499542965" x="196703.60437950876" y="2495589.59147694" >
		</node>
		<node id="499543008" x="196676.60170729557" y="2495780.1169791403" >
		</node>
		<node id="499543012" x="196683.1764648204" y="2495590.6266416954" >
		</node>
		<node id="499543019" x="196687.96436736704" y="2496021.802778794" >
		</node>
		<node id="499543021" x="196686.27209477825" y="2495674.915386122" >
		</node>
		<node id="499543059" x="196688.47180622694" y="2496135.0721497457" >
		</node>
		<node id="499543065" x="196675.76752913697" y="2495988.1152764102" >
		</node>
		<node id="499543123" x="196182.43321831152" y="2495861.5985654155" >