<?xml version="1.0" encoding="utf-8"?>
<!DOCTYPE population SYSTEM "http://www.matsim.org/files/dtd/population_v6.dtd">

<population>



<!-- ====================================================================== -->

	<person id="person1">
		<plan selected="yes">
			<activity type="home" x="3.8490852707536004E7" y="2483522.4295838214" end_time="09:11:50" >
			</activity>
			<leg mode="car">
			</leg>
			<activity type="Random" x="3.852546383174483E7" y="2492888.432731454" max_dur="01:00:00" end_time="17:03:51" >
			</activity>
			<leg mode="car">
			</leg>
			<activity type="home" x="3.8490852707536004E7" y="2483522.4295838214" >
			</activity>
			<leg mode="car">
			</leg>
			<activity type="work" x="3.853199078110548E7" y="2500191.0837305207" start_time="08:45:27" end_time="16:59:04" >
			</activity>
			<leg mode="car">
			</leg>
			<activity type="home" x="3.8490852707536004E7" y="2483522.4295838214" >
			</activity>
		</plan>

	</person>

<!-- ====================================================================== -->

	<person id="person10">
		<plan selected="yes">
			<activity type="home" x="3.851575208753219E7" y="2491030.020155033" end_time="06:45:37" >
			</activity>
			<leg mode="car">
			</leg>
			<activity type="Random" x="3.8531131134762846E7" y="2503200.1437985306" max_dur="01:00:00" end_time="18:41:49" >
			</activity>
			<leg mode="car">
			</leg>
			<activity type="home" x="3.851575208753219E7" y="2491030.020155033" >
			</activity>
		</plan>

	</person>

<!-- ====================================================================== -->

	<person id="person11">
		<plan selected="yes">
			<activity type="home" x="3.851424689924892E7" y="2493568.4996834574" end_time="07:37:27" >
			</activity>
			<leg mode="car">
			</leg>
			<activity type="Random" x="3.850155532319898E7" y="2504027.610201346" max_dur="01:00:00" end_time="17:21:58" >
			</activity>
			<leg mode="car">
			</leg>
			<activity type="home" x="3.851424689924892E7" y="2493568.4996834574" >
			</activity>
		</plan>

	</person>

<!-- ====================================================================== -->

	<person id="person12">
		<plan selected="yes">
			<activity type="home" x="3.852569721046261E7" y="2486973.1983006815" end_time="06:57:03" >
			</activity>
			<leg mode="car">
			</leg>
			<activity type="Random" x="3.8517215116235174E7" y="2499755.6926374533" max_dur="01:00:00" end_time="16:14:12" >
			</activity>
			<leg mode="car">
			</leg>
			<activity type="home" x="3.852569721046261E7" y="2486973.1983006815" >
			</activity>
		</plan>

	</person>

<!-- ====================================================================== -->

	<person id="person2">
		<plan selected="yes">
			<activity type="home" x="3.849242539542759E7" y="2504145.5163244717" end_time="07:49:07" >
			</activity>
			<leg mode="car">
			</leg>
			<activity type="Random" x="3.850841056904101E7" y="2487466.596865931" max_dur="01:00:00" end_time="18:43:02" >
			</activity>
			<leg mode="car">
			</leg>
			<activity type="home" x="3.849242539542759E7" y="2504145.5163244717" >
			</activity>
		</plan>

	</person>

<!-- ====================================================================== -->

	<person id="person3">
		<plan selected="yes">
			<activity type="home" x="3.848591416509806E7" y="2488427.8650847236" end_time="08:15:39" >
			</activity>
			<leg mode="car">
			</leg>
			<activity type="Random" x="3.8517107094659746E7" y="2490188.7861829065" max_dur="01:00:00" end_time="17:51:05" >
			</activity>
			<leg mode="car">
			</leg>
			<activity type="home" x="3.848591416509806E7" y="2488427.8650847236" >
			</activity>
		</plan>

	</person>

<!-- ====================================================================== -->

	<person id="person4">
		<plan selected="yes">
			<activity type="home" x="3.849602682949457E7" y="2488106.5578894154" end_time="09:40:17" >
			</activity>
			<leg mode="car">
			</leg>
			<activity type="Random" x="3.8493931124963164E7" y="2499328.526717094" max_dur="01:00:00" end_time="17:20:36" >
			</activity>
			<leg mode="car">
			</leg>
			<activity type="home" x="3.849602682949457E7" y="2488106.5578894154" >
			</activity>
			<leg mode="car">
			</leg>
			<activity type="work" x="3.85227585331502E7" y="2494095.1020200634" start_time="10:18:33" end_time="16:19:46" >
			</activity>
			<leg mode="car">
			</leg>
			<activity type="home" x="3.849602682949457E7" y="2488106.5578894154" >
			</activity>
		</plan>

	</person>

<!-- ====================================================================== -->

	<person id="person5">
		<plan selected="yes">
			<activity type="home" x="3.85082228717294E7" y="2488015.6831484097" end_time="07:16:44" >
			</activity>
			<leg mode="car">
			</leg>
			<activity type="Random" x="3.849000214679877E7" y="2496211.309784278" max_dur="01:00:00" end_time="15:48:14" >
			</activity>
			<leg mode="car">
			</leg>
			<activity type="home" x="3.85082228717294E7" y="2488015.6831484097" >
			</activity>
			<leg mode="car">
			</leg>
			<activity type="work" x="3.851358673454325E7" y="2496020.9113792195" start_time="08:17:21" end_time="18:07:57" >
			</activity>
			<leg mode="car">
			</leg>
			<activity type="home" x="3.85082228717294E7" y="2488015.6831484097" >
			</activity>
		</plan>

	</person>

<!-- ====================================================================== -->

	<person id="person6">
		<plan selected="yes">
			<activity type="home" x="3.850604907815995E7" y="2486604.8312822087" end_time="07:18:11" >
			</activity>
			<leg mode="car">
			</leg>
			<activity type="Random" x="3.8512851198898666E7" y="2488853.8861429314" max_dur="01:00:00" end_time="17:39:26" >
			</activity>
			<leg mode="car">
			</leg>
			<activity type="home" x="3.850604907815995E7" y="2486604.8312822087" >
			</activity>
			<leg mode="car">
			</leg>
			<activity type="work" x="3.8492910743701555E7" y="2503072.2859550864" start_time="07:22:40" end_time="16:13:49" >
			</activity>
			<leg mode="car">
			</leg>
			<activity type="home" x="3.850604907815995E7" y="2486604.8312822087" >
			</activity>
		</plan>

	</person>

<!-- ====================================================================== -->

	<person id="person7">
		<plan selected="yes">
			<activity type="home" x="3.850655844212441E7" y="2503815.313816736" end_time="08:46:37" >
			</activity>
			<leg mode="taxi">
			</leg>
			<activity type="work" x="3.852355508152211E7" y="2505221.4820115226" start_time="08:09:37" end_time="14:50:13" >
			</activity>
			<leg mode="taxi">
			</leg>
			<activity type="Random" x="3.852494246676944E7" y="2498683.682736455" max_dur="01:00:00" end_time="17:39:05" >
			</activity>
			<leg mode="taxi">
			</leg>
			<activity type="work" x="3.852355508152211E7" y="2505221.4820115226" >
			</activity>
			<leg mode="taxi">
			</leg>
			<activity type="home" x="3.850655844212441E7" y="2503815.313816736" >
			</activity>
		</plan>

	</person>

<!-- ====================================================================== -->

	<person id="person8">
		<plan selected="yes">
			<activity type="home" x="3.849964304493104E7" y="2502746.1101307333" end_time="08:38:08" >
			</activity>
			<leg mode="car">
			</leg>
			<activity type="Random" x="3.848935209804346E7" y="2492037.1690681796" max_dur="01:00:00" end_time="17:51:44" >
			</activity>
			<leg mode="car">
			</leg>
			<activity type="home" x="3.849964304493104E7" y="2502746.1101307333" >
			</activity>
		</plan>

	</person>

<!-- ====================================================================== -->

	<person id="person9">
		<plan selected="yes">
			<activity type="home" x="3.851479860200881E7" y="2501104.312178025" end_time="08:27:54" >
			</activity>
			<leg mode="car">
			</leg>
			<activity type="Random" x="3.851368571792347E7" y="2499918.8107622834" max_dur="01:00:00" end_time="16:39:05" >
			</activity>
			<leg mode="car">
			</leg>
			<activity type="home" x="3.851479860200881E7" y="2501104.312178025" >
			</activity>
		</plan>

	</person>

<!-- ====================================================================== -->

</population>
