<?xml version="1.0" encoding="UTF-8"?>
<!DOCTYPE network SYSTEM "http://www.matsim.org/files/dtd/network_v2.dtd">
<network>

<!-- ====================================================================== -->

	<nodes>
		<node id="1169600586" x="183575.72740109835" y="2493580.9478983195" >
		</node>
		<node id="1169607963" x="183030.6150237904" y="2493123.973023015" >
		</node>
		<node id="1169608891" x="183679.16354245378" y="2493585.6258938764" >
		</node>
		<node id="1169611705" x="182547.2187206226" y="2493456.453269098" >
		</node>
		<node id="1169614338" x="182873.57076810527" y="2493267.3193579614" >
		</node>
		<node id="1927123301" x="183946.8932790651" y="2493598.566005075" >
		</node>
		<node id="2132634105" x="183374.20208850532" y="2493533.1949680336" >
		</node>
		<node id="2132634165" x="183363.29317179782" y="2493481.074486466" >
		</node>
		<node id="2404247016" x="183745.09236502415" y="2493835.7072645845" >
		</node>
		<node id="2406906937" x="184174.8889865465" y="2493914.822378198" >
		</node>
		<node id="2406906961" x="184121.46568613767" y="2493553.730021203" >
		</node>
		<node id="2407561589" x="182559.40746219945" y="2492393.816784782" >
		</node>
		<node id="2407561607" x="182457.87193736032" y="2492790.997857289" >
		</node>
		<node id="2409719682" x="183361.96969615849" y="2493399.8016192876" >
		</node>
		<node id="2409719693" x="183335.58866238542" y="2493182.5062305266" >
		</node>
		<node id="2409719701" x="183539.93859878654" y="2493915.67526613" >
		</node>
		<node id="2411114346" x="183569.07804085448" y="2493399.972260801" >
		</node>
		<node id="2411114363" x="183639.44869311503" y="2493151.021823694" >
		</node>
		<node id="2411114368" x="183909.80236305372" y="2493148.444358819" >
		</node>
		<node id="2411114377" x="183565.54065374425" y="2492308.438036597" >
		</node>
		<node id="2411114383" x="183413.44227365247" y="2493155.562102062" >
		</node>
		<node id="2411114395" x="183362.47237624187" y="2492893.50033182" >
		</node>
		<node id="2411114402" x="183542.09398467006" y="2493151.727955375" >
		</node>
		<node id="2411120890" x="184359.97680329916" y="2493275.701743248" >
		</node>
		<node id="2411120892" x="183924.92799739697" y="2493094.6357526686" >
		</node>
		<node id="2420850597" x="183935.90071604308" y="2493410.0090561304" >
		</node>
		<node id="2420850601" x="183916.71682918834" y="2493398.1430414347" >
		</node>
		<node id="2420850602" x="183917.64529278333" y="2493412.24664775" >
		</node>
		<node id="2420850616" x="183935.18727441953" y="2493396.3444437934" >
		</node>
		<node id="2420872107" x="183657.30631027085" y="2493412.7895043073" >
		</node>
		<node id="2420872134" x="183364.68617398775" y="2493416.1852865443" >
		</node>
		<node id="2420872145" x="183352.2054841873" y="2493421.2755236095" >
		</node>
		<node id="2428181052" x="182849.95789324952" y="2493346.379820564" >
		</node>
		<node id="2428181066" x="182986.1258442924" y="2493524.319532456" >
		</node>
		<node id="2428181067" x="183052.06363523589" y="2493473.508169824" >
		</node>
		<node id="2428181088" x="182898.69552052574" y="2493500.781159567" >
		</node>
		<node id="2428181096" x="182887.17542596225" y="2493601.873920875" >
		</node>
		<node id="2428181119" x="183008.55170725274" y="2493551.526352188" >
		</node>
		<node id="2428181125" x="183074.20098094264" y="2493499.712252844" >
		</node>
		<node id="2428181157" x="183003.05395124288" y="2493416.7413518643" >
		</node>
		<node id="2428181171" x="182939.68649397895" y="2493467.8435542854" >
		</node>
		<node id="2431806899" x="184150.1810132101" y="2493747.8311516116" >
		</node>
		<node id="2431806904" x="183571.91301495623" y="2493433.635557194" >
		</node>
		<node id="2432079846" x="183982.3305361927" y="2493591.485699058" >
		</node>
		<node id="2432079853" x="183972.31753008504" y="2493764.7221795092" >
		</node>
		<node id="2462840703" x="183801.22596087836" y="2493594.599507141" >
		</node>
		<node id="2462840705" x="183823.91757645132" y="2493412.9431872857" >
		</node>
		<node id="2462840706" x="183802.8103493636" y="2493481.8402092243" >
		</node>
		<node id="2463727792" x="183362.42871696374" y="2493254.5405531605" >
		</node>
		<node id="2463727797" x="183555.74647904874" y="2493251.1153886435" >
		</node>
		<node id="2463727798" x="183478.62840805418" y="2493221.2090658164" >
		</node>
		<node id="2463727821" x="183423.36648714077" y="2493252.9089886146" >
		</node>
		<node id="2463727827" x="183551.51533438603" y="2493220.1745648063" >
		</node>
		<node id="2539268997" x="184056.2289177004" y="2493362.6074051806" >
		</node>
		<node id="2539269004" x="183962.7970521389" y="2493272.4750353647" >
		</node>
		<node id="2561123867" x="184691.35075855663" y="2493670.9981815815" >
		</node>
		<node id="2561123869" x="184151.4957485482" y="2493756.683464009" >
		</node>
		<node id="2561123874" x="183986.37253204163" y="2493771.095541026" >
		</node>
		<node id="2561123875" x="184148.42255135224" y="2493735.928413358" >
		</node>
		<node id="2561191990" x="183229.5893027967" y="2493517.505869403" >
		</node>
		<node id="2561192003" x="183476.05587348936" y="2493616.5659777047" >
		</node>
		<node id="2561192023" x="183271.455040285" y="2493571.5049591344" >
		</node>
		<node id="2561207394" x="183882.9281644298" y="2493148.775067441" >
		</node>
		<node id="2613095871" x="182910.7635232486" y="2493629.998899247" >
		</node>
		<node id="2613104702" x="183609.7385859728" y="2493307.8588154833" >
		</node>
		<node id="2613104705" x="183728.94289073057" y="2493181.2619330445" >
		</node>
		<node id="2613104708" x="183913.1028541816" y="2493327.54844564" >
		</node>
		<node id="2613104730" x="183831.62009474233" y="2493149.40862324" >
		</node>
		<node id="2613104734" x="183459.12299435807" y="2493399.8853374785" >
		</node>
		<node id="2613104743" x="183459.83993227727" y="2493313.1387110366" >
		</node>
		<node id="2613104747" x="183888.06708774134" y="2493328.6173705463" >
		</node>
		<node id="2613104748" x="183572.2063114263" y="2493311.258340167" >
		</node>
		<node id="2613104766" x="183622.4829872169" y="2493241.993532204" >
		</node>
		<node id="2613104780" x="183554.3260089705" y="2493241.145634158" >
		</node>
		<node id="2613104782" x="183563.08804944297" y="2493312.0889298813" >
		</node>
		<node id="2613104788" x="183831.9207147028" y="2493181.0621192297" >
		</node>
		<node id="2613104790" x="183886.41959488048" y="2493275.5303982655" >
		</node>
		<node id="2703118367" x="183978.51446350716" y="2493383.769984097" >
		</node>
		<node id="2703118371" x="183932.95402704395" y="2493353.334990354" >
		</node>
		<node id="2703118376" x="183914.75124127517" y="2493357.1345233507" >
		</node>
		<node id="2703118383" x="183938.22280012385" y="2493454.8346763346" >
		</node>
		<node id="2703118402" x="183899.6500151942" y="2493148.5754435672" >
		</node>
		<node id="2703118410" x="183868.83511124965" y="2493400.0807364304" >
		</node>
		<node id="2703118455" x="183934.4734341714" y="2493094.5393337845" >
		</node>
		<node id="2703118464" x="183877.83430001256" y="2493412.9985667043" >
		</node>
		<node id="277664427" x="183837.6637485848" y="2494177.4928438524" >
		</node>
		<node id="294986394" x="183931.69862246996" y="2493599.8871241994" >
		</node>
		<node id="295527515" x="183227.02807813487" y="2492944.699292583" >
		</node>
		<node id="297121592" x="183350.1533598979" y="2493404.6453825524" >
		</node>
		<node id="4729093894" x="183376.98268716247" y="2492307.9944244865" >
		</node>
		<node id="5179707825" x="183315.87562768185" y="2493448.0411023046" >
		</node>
		<node id="5179707826" x="183310.95840874786" y="2493434.318912254" >
		</node>
		<node id="5179707830" x="183342.91906128172" y="2493344.9222608707" >
		</node>
		<node id="5389587202" x="183950.32358580484" y="2493635.176799728" >
		</node>
		<node id="5389588066" x="183891.8844751598" y="2493600.461774851" >
		</node>
		<node id="5389588073" x="183944.02957079525" y="2493554.9487295127" >
		</node>
		<node id="5389588076" x="183955.6412303517" y="2493579.7295965455" >
		</node>
		<node id="5389588085" x="183927.8495288358" y="2493548.9183664513" >
		</node>
		<node id="5389588086" x="183921.0851216949" y="2493582.0805867934" >
		</node>
		<node id="5389588088" x="183922.33106121363" y="2493477.8640774274" >
		</node>
		<node id="5392274254" x="184936.98111323407" y="2493328.9388087457" >
		</node>
		<node id="6285187791" x="183409.26033606305" y="2493415.666528574" >
		</node>
		<node id="6285187798" x="183373.67429409205" y="2493469.054788055" >
		</node>
		<node id="7236993919" x="183939.34935293376" y="2493469.056148332" >
		</node>
		<node id="7236993992" x="183932.711915195" y="2493341.5562788267" >
		</node>
		<node id="830984669" x="183137.54728099203" y="2493572.512554339" >
		</node>
	</nodes>

<!-- ====================================================================== -->

	<links capperiod="01:00:00" effectivecellsize="7.5" effectivelanewidth="3.75">
		<link id="1" from="2406906937" to="2561123869" length="159.85981675063556" freespeed="4.166666666666667" capacity="600.0" permlanes="1.0" oneway="1" modes="car" >
			<attributes>
				<attribute name="origid" class="java.lang.String">232333403</attribute>
				<attribute name="type" class="java.lang.String">unclassified</attribute>
			</attributes>
		</link>
		<link id="10" from="2613104730" to="2561207394" length="51.31200165059471" freespeed="4.166666666666667" capacity="1200.0" permlanes="1.0" oneway="1" modes="car" >
			<attributes>
				<attribute name="origid" class="java.lang.String">232791272</attribute>
				<attribute name="type" class="java.lang.String">residential</attribute>
			</attributes>
		</link>
		<link id="101" from="5179707826" to="5179707830" length="98.16249513934008" freespeed="9.140161721994264" capacity="2000.0" permlanes="1.0" oneway="1" modes="car" >
			<attributes>
				<attribute name="origid" class="java.lang.String">533980774</attribute>
				<attribute name="type" class="java.lang.String">primary_link</attribute>
			</attributes>
		</link>
		<link id="102" from="2132634165" to="5179707825" length="66.18253951337616" freespeed="7.067386820311417" capacity="2000.0" permlanes="1.0" oneway="1" modes="car" >
			<attributes>
				<attribute name="origid" class="java.lang.String">533980773</attribute>
				<attribute name="type" class="java.lang.String">primary_link</attribute>
			</attributes>
		</link>
		<link id="103" from="6285187791" to="6285187798" length="73.78006074268885" freespeed="7.559818751840944" capacity="2000.0" permlanes="1.0" oneway="1" modes="car" >
			<attributes>
				<attribute name="origid" class="java.lang.String">671170617</attribute>
				<attribute name="type" class="java.lang.String">primary_link</attribute>
			</attributes>
		</link>
		<link id="104" from="7236993919" to="5389588076" length="112.43263414029049" freespeed="10.065078138722532" capacity="1000.0" permlanes="1.0" oneway="1" modes="car" >
			<attributes>
				<attribute name="origid" class="java.lang.String">775735685</attribute>
				<attribute name="type" class="java.lang.String">primary_link</attribute>
			</attributes>
		</link>
		<link id="107" from="2411114363" to="2411114377" length="865.0076442394414" freespeed="4.166666666666667" capacity="600.0" permlanes="1.0" oneway="1" modes="car" >
			<attributes>
				<attribute name="origid" class="java.lang.String">232791260</attribute>
				<attribute name="type" class="java.lang.String">residential</attribute>
			</attributes>
		</link>
		<link id="108" from="2411114377" to="2411114363" length="865.0076442394414" freespeed="4.166666666666667" capacity="600.0" permlanes="1.0" oneway="1" modes="car" >
			<attributes>
				<attribute name="origid" class="java.lang.String">232791260</attribute>
				<attribute name="type" class="java.lang.String">residential</attribute>
			</attributes>
		</link>
		<link id="109" from="5389587202" to="2432079853" length="132.61735335095338" freespeed="4.166666666666667" capacity="600.0" permlanes="1.0" oneway="1" modes="car" >
			<attributes>
				<attribute name="origid" class="java.lang.String">775735683</attribute>
				<attribute name="type" class="java.lang.String">residential</attribute>
			</attributes>
		</link>
		<link id="11" from="2613104730" to="2411114363" length="192.1781725875947" freespeed="4.166666666666667" capacity="600.0" permlanes="1.0" oneway="1" modes="car" >
			<attributes>
				<attribute name="origid" class="java.lang.String">232791272</attribute>
				<attribute name="type" class="java.lang.String">residential</attribute>
			</attributes>
		</link>
		<link id="112" from="4729093894" to="2411114402" length="859.7889527146832" freespeed="22.22222222222222" capacity="600.0" permlanes="1.0" oneway="1" modes="car" >
			<attributes>
				<attribute name="origid" class="java.lang.String">580915682</attribute>
				<attribute name="type" class="java.lang.String">tertiary</attribute>
			</attributes>
		</link>
		<link id="113" from="2411114402" to="4729093894" length="859.7889527146832" freespeed="22.22222222222222" capacity="600.0" permlanes="1.0" oneway="1" modes="car" >
			<attributes>
				<attribute name="origid" class="java.lang.String">580915682</attribute>
				<attribute name="type" class="java.lang.String">tertiary</attribute>
			</attributes>
		</link>
		<link id="114" from="2411114402" to="2463727827" length="69.09196894811139" freespeed="7.255960950340552" capacity="1200.0" permlanes="1.0" oneway="1" modes="car" >
			<attributes>
				<attribute name="origid" class="java.lang.String">580915682</attribute>
				<attribute name="type" class="java.lang.String">tertiary</attribute>
			</attributes>
		</link>
		<link id="115" from="2463727827" to="2411114402" length="69.09196894811139" freespeed="7.255960950340552" capacity="1200.0" permlanes="1.0" oneway="1" modes="car" >
			<attributes>
				<attribute name="origid" class="java.lang.String">580915682</attribute>
				<attribute name="type" class="java.lang.String">tertiary</attribute>
			</attributes>
		</link>
		<link id="116" from="2463727827" to="2613104780" length="21.15936070391002" freespeed="4.1492178234015755" capacity="1200.0" permlanes="1.0" oneway="1" modes="car" >
			<attributes>
				<attribute name="origid" class="java.lang.String">580915682</attribute>
				<attribute name="type" class="java.lang.String">tertiary</attribute>
			</attributes>
		</link>
		<link id="117" from="2613104780" to="2463727827" length="21.15936070391002" freespeed="4.1492178234015755" capacity="1200.0" permlanes="1.0" oneway="1" modes="car" >
			<attributes>
				<attribute name="origid" class="java.lang.String">580915682</attribute>
				<attribute name="type" class="java.lang.String">tertiary</attribute>
			</attributes>
		</link>
		<link id="118" from="2613104780" to="2463727797" length="10.070438905162215" freespeed="3.4304914105197732" capacity="1200.0" permlanes="1.0" oneway="1" modes="car" >
			<attributes>
				<attribute name="origid" class="java.lang.String">580915682</attribute>
				<attribute name="type" class="java.lang.String">tertiary</attribute>
			</attributes>
		</link>
		<link id="119" from="2463727797" to="2613104780" length="10.070438905162215" freespeed="3.4304914105197732" capacity="1200.0" permlanes="1.0" oneway="1" modes="car" >
			<attributes>
				<attribute name="origid" class="java.lang.String">580915682</attribute>
				<attribute name="type" class="java.lang.String">tertiary</attribute>
			</attributes>
		</link>
		<link id="12" from="2411114363" to="2613104730" length="192.1781725875947" freespeed="4.166666666666667" capacity="600.0" permlanes="1.0" oneway="1" modes="car" >
			<attributes>
				<attribute name="origid" class="java.lang.String">232791272</attribute>
				<attribute name="type" class="java.lang.String">residential</attribute>
			</attributes>
		</link>
		<link id="120" from="2463727797" to="2613104782" length="61.440626446858026" freespeed="6.760040603037094" capacity="1200.0" permlanes="1.0" oneway="1" modes="car" >
			<attributes>
				<attribute name="origid" class="java.lang.String">580915682</attribute>
				<attribute name="type" class="java.lang.String">tertiary</attribute>
			</attributes>
		</link>
		<link id="121" from="2613104782" to="2463727797" length="61.440626446858026" freespeed="6.760040603037094" capacity="1200.0" permlanes="1.0" oneway="1" modes="car" >
			<attributes>
				<attribute name="origid" class="java.lang.String">580915682</attribute>
				<attribute name="type" class="java.lang.String">tertiary</attribute>
			</attributes>
		</link>
		<link id="122" from="2613104782" to="2411114346" length="88.08722914651906" freespeed="8.48713522245957" capacity="1200.0" permlanes="1.0" oneway="1" modes="car" >
			<attributes>
				<attribute name="origid" class="java.lang.String">580915682</attribute>
				<attribute name="type" class="java.lang.String">tertiary</attribute>
			</attributes>
		</link>
		<link id="123" from="2411114346" to="2613104782" length="88.08722914651906" freespeed="8.48713522245957" capacity="1200.0" permlanes="1.0" oneway="1" modes="car" >
			<attributes>
				<attribute name="origid" class="java.lang.String">580915682</attribute>
				<attribute name="type" class="java.lang.String">tertiary</attribute>
			</attributes>
		</link>
		<link id="127" from="294986394" to="5389588085" length="51.11589998529801" freespeed="6.090845369417464" capacity="6000.0" permlanes="3.0" oneway="1" modes="car" >
			<attributes>
				<attribute name="origid" class="java.lang.String">26923097</attribute>
				<attribute name="type" class="java.lang.String">primary</attribute>
			</attributes>
		</link>
		<link id="128" from="5389588085" to="5389588088" length="71.26826414037886" freespeed="7.397017120209741" capacity="6000.0" permlanes="3.0" oneway="1" modes="car" >
			<attributes>
				<attribute name="origid" class="java.lang.String">26923097</attribute>
				<attribute name="type" class="java.lang.String">primary</attribute>
			</attributes>
		</link>
		<link id="129" from="5389588088" to="2420850602" length="65.7850679237253" freespeed="7.041624772834046" capacity="6000.0" permlanes="3.0" oneway="1" modes="car" >
			<attributes>
				<attribute name="origid" class="java.lang.String">26923097</attribute>
				<attribute name="type" class="java.lang.String">primary</attribute>
			</attributes>
		</link>
		<link id="13" from="2411114363" to="2411114402" length="97.3572692630362" freespeed="4.166666666666667" capacity="1200.0" permlanes="1.0" oneway="1" modes="car" >
			<attributes>
				<attribute name="origid" class="java.lang.String">232791272</attribute>
				<attribute name="type" class="java.lang.String">residential</attribute>
			</attributes>
		</link>
		<link id="130" from="2420850602" to="2420850601" length="14.134134417962247" freespeed="3.693879082645701" capacity="6000.0" permlanes="3.0" oneway="1" modes="car" >
			<attributes>
				<attribute name="origid" class="java.lang.String">26923097</attribute>
				<attribute name="type" class="java.lang.String">primary</attribute>
			</attributes>
		</link>
		<link id="131" from="2420850601" to="2703118376" length="41.056580016257016" freespeed="5.438852408461103" capacity="6000.0" permlanes="3.0" oneway="1" modes="car" >
			<attributes>
				<attribute name="origid" class="java.lang.String">26923097</attribute>
				<attribute name="type" class="java.lang.String">primary</attribute>
			</attributes>
		</link>
		<link id="132" from="2703118376" to="2613104708" length="29.63196203947169" freespeed="4.698367909965758" capacity="6000.0" permlanes="3.0" oneway="1" modes="car" >
			<attributes>
				<attribute name="origid" class="java.lang.String">26923097</attribute>
				<attribute name="type" class="java.lang.String">primary</attribute>
			</attributes>
		</link>
		<link id="133" from="2613104708" to="2411114368" length="179.13503158294193" freespeed="14.388381676672163" capacity="3000.0" permlanes="3.0" oneway="1" modes="car" >
			<attributes>
				<attribute name="origid" class="java.lang.String">26923097</attribute>
				<attribute name="type" class="java.lang.String">primary</attribute>
			</attributes>
		</link>
		<link id="137" from="2409719693" to="2409719682" length="218.9216669544157" freespeed="16.967145080378796" capacity="2000.0" permlanes="2.0" oneway="1" modes="car" >
			<attributes>
				<attribute name="origid" class="java.lang.String">232630430</attribute>
				<attribute name="type" class="java.lang.String">primary</attribute>
			</attributes>
		</link>
		<link id="138" from="2409719682" to="2420872134" length="16.607341887689184" freespeed="3.854179566794669" capacity="4000.0" permlanes="2.0" oneway="1" modes="car" >
			<attributes>
				<attribute name="origid" class="java.lang.String">232630430</attribute>
				<attribute name="type" class="java.lang.String">primary</attribute>
			</attributes>
		</link>
		<link id="139" from="2420872134" to="6285187798" length="53.63254315281561" freespeed="6.253961130275086" capacity="4000.0" permlanes="2.0" oneway="1" modes="car" >
			<attributes>
				<attribute name="origid" class="java.lang.String">232630430</attribute>
				<attribute name="type" class="java.lang.String">primary</attribute>
			</attributes>
		</link>
		<link id="14" from="2411114402" to="2411114363" length="97.3572692630362" freespeed="4.166666666666667" capacity="1200.0" permlanes="1.0" oneway="1" modes="car" >
			<attributes>
				<attribute name="origid" class="java.lang.String">232791272</attribute>
				<attribute name="type" class="java.lang.String">residential</attribute>
			</attributes>
		</link>
		<link id="140" from="6285187798" to="2409719701" length="477.8176578483903" freespeed="22.22222222222222" capacity="2000.0" permlanes="2.0" oneway="1" modes="car" >
			<attributes>
				<attribute name="origid" class="java.lang.String">232630430</attribute>
				<attribute name="type" class="java.lang.String">primary</attribute>
			</attributes>
		</link>
		<link id="142" from="2411120892" to="2703118455" length="9.545923727750045" freespeed="4.166666666666667" capacity="1200.0" permlanes="1.0" oneway="1" modes="car" >
			<attributes>
				<attribute name="origid" class="java.lang.String">232792233</attribute>
				<attribute name="type" class="java.lang.String">unclassified</attribute>
			</attributes>
		</link>
		<link id="143" from="2703118455" to="2411120892" length="9.545923727750045" freespeed="4.166666666666667" capacity="1200.0" permlanes="1.0" oneway="1" modes="car" >
			<attributes>
				<attribute name="origid" class="java.lang.String">232792233</attribute>
				<attribute name="type" class="java.lang.String">unclassified</attribute>
			</attributes>
		</link>
		<link id="144" from="2703118455" to="2411120890" length="563.13348110704" freespeed="4.166666666666667" capacity="600.0" permlanes="1.0" oneway="1" modes="car" >
			<attributes>
				<attribute name="origid" class="java.lang.String">232792233</attribute>
				<attribute name="type" class="java.lang.String">unclassified</attribute>
			</attributes>
		</link>
		<link id="145" from="2411120890" to="2703118455" length="563.13348110704" freespeed="4.166666666666667" capacity="600.0" permlanes="1.0" oneway="1" modes="car" >
			<attributes>
				<attribute name="origid" class="java.lang.String">232792233</attribute>
				<attribute name="type" class="java.lang.String">unclassified</attribute>
			</attributes>
		</link>
		<link id="146" from="1169600586" to="2431806904" length="147.36171615983082" freespeed="4.166666666666667" capacity="600.0" permlanes="1.0" oneway="1" modes="car" >
			<attributes>
				<attribute name="origid" class="java.lang.String">246999413</attribute>
				<attribute name="type" class="java.lang.String">residential</attribute>
			</attributes>
		</link>
		<link id="147" from="2431806904" to="1169600586" length="147.36171615983082" freespeed="4.166666666666667" capacity="600.0" permlanes="1.0" oneway="1" modes="car" >
			<attributes>
				<attribute name="origid" class="java.lang.String">246999413</attribute>
				<attribute name="type" class="java.lang.String">residential</attribute>
			</attributes>
		</link>
		<link id="15" from="2411114402" to="2411114383" length="128.70883197579593" freespeed="4.166666666666667" capacity="600.0" permlanes="1.0" oneway="1" modes="car" >
			<attributes>
				<attribute name="origid" class="java.lang.String">232791272</attribute>
				<attribute name="type" class="java.lang.String">residential</attribute>
			</attributes>
		</link>
		<link id="16" from="2411114383" to="2411114402" length="128.70883197579593" freespeed="4.166666666666667" capacity="600.0" permlanes="1.0" oneway="1" modes="car" >
			<attributes>
				<attribute name="origid" class="java.lang.String">232791272</attribute>
				<attribute name="type" class="java.lang.String">residential</attribute>
			</attributes>
		</link>
		<link id="160" from="2539268997" to="2539269004" length="166.99238817126573" freespeed="4.166666666666667" capacity="600.0" permlanes="1.0" oneway="1" modes="car" >
			<attributes>
				<attribute name="origid" class="java.lang.String">246969952</attribute>
				<attribute name="type" class="java.lang.String">residential</attribute>
			</attributes>
		</link>
		<link id="161" from="2539269004" to="2539268997" length="166.99238817126573" freespeed="4.166666666666667" capacity="600.0" permlanes="1.0" oneway="1" modes="car" >
			<attributes>
				<attribute name="origid" class="java.lang.String">246969952</attribute>
				<attribute name="type" class="java.lang.String">residential</attribute>
			</attributes>
		</link>
		<link id="162" from="5389588088" to="2703118464" length="84.39089484645281" freespeed="8.247557999307126" capacity="2000.0" permlanes="1.0" oneway="1" modes="car" >
			<attributes>
				<attribute name="origid" class="java.lang.String">264651807</attribute>
				<attribute name="type" class="java.lang.String">primary_link</attribute>
			</attributes>
		</link>
		<link id="164" from="2539268997" to="2411120890" length="315.94108527485173" freespeed="22.22222222222222" capacity="1600.0" permlanes="2.0" oneway="1" modes="car" >
			<attributes>
				<attribute name="origid" class="java.lang.String">328427341</attribute>
				<attribute name="type" class="java.lang.String">secondary</attribute>
			</attributes>
		</link>
		<link id="165" from="2703118367" to="2539268997" length="80.54434267506272" freespeed="7.998244432642954" capacity="3200.0" permlanes="2.0" oneway="1" modes="car" >
			<attributes>
				<attribute name="origid" class="java.lang.String">328427341</attribute>
				<attribute name="type" class="java.lang.String">secondary</attribute>
			</attributes>
		</link>
		<link id="166" from="2420850616" to="2703118367" length="45.12394766836051" freespeed="5.702478089615959" capacity="3200.0" permlanes="2.0" oneway="1" modes="car" >
			<attributes>
				<attribute name="origid" class="java.lang.String">328427341</attribute>
				<attribute name="type" class="java.lang.String">secondary</attribute>
			</attributes>
		</link>
		<link id="167" from="2420850601" to="2420850616" length="18.557809690625312" freespeed="3.9805987762442334" capacity="3200.0" permlanes="2.0" oneway="1" modes="car" >
			<attributes>
				<attribute name="origid" class="java.lang.String">328427341</attribute>
				<attribute name="type" class="java.lang.String">secondary</attribute>
			</attributes>
		</link>
		<link id="168" from="2703118410" to="2420850601" length="47.93248305613587" freespeed="5.884512790675473" capacity="3200.0" permlanes="2.0" oneway="1" modes="car" >
			<attributes>
				<attribute name="origid" class="java.lang.String">328427341</attribute>
				<attribute name="type" class="java.lang.String">secondary</attribute>
			</attributes>
		</link>
		<link id="169" from="2411114346" to="2703118410" length="299.7570900226608" freespeed="22.20647805702431" capacity="1600.0" permlanes="2.0" oneway="1" modes="car" >
			<attributes>
				<attribute name="origid" class="java.lang.String">328427341</attribute>
				<attribute name="type" class="java.lang.String">secondary</attribute>
			</attributes>
		</link>
		<link id="17" from="2411114383" to="2409719693" length="82.38428761620818" freespeed="4.166666666666667" capacity="1200.0" permlanes="1.0" oneway="1" modes="car" >
			<attributes>
				<attribute name="origid" class="java.lang.String">232791272</attribute>
				<attribute name="type" class="java.lang.String">residential</attribute>
			</attributes>
		</link>
		<link id="170" from="2613104734" to="2411114346" length="109.95508085437525" freespeed="9.9044959813021" capacity="1600.0" permlanes="2.0" oneway="1" modes="car" >
			<attributes>
				<attribute name="origid" class="java.lang.String">328427341</attribute>
				<attribute name="type" class="java.lang.String">secondary</attribute>
			</attributes>
		</link>
		<link id="171" from="2409719682" to="2613104734" length="97.15333427007447" freespeed="9.074753147134457" capacity="3200.0" permlanes="2.0" oneway="1" modes="car" >
			<attributes>
				<attribute name="origid" class="java.lang.String">328427341</attribute>
				<attribute name="type" class="java.lang.String">secondary</attribute>
			</attributes>
		</link>
		<link id="172" from="297121592" to="2409719682" length="12.770585154522061" freespeed="3.6055008896449485" capacity="3200.0" permlanes="2.0" oneway="1" modes="car" >
			<attributes>
				<attribute name="origid" class="java.lang.String">328427341</attribute>
				<attribute name="type" class="java.lang.String">secondary</attribute>
			</attributes>
		</link>
		<link id="173" from="5179707826" to="297121592" length="49.193483022921555" freespeed="5.966244270004175" capacity="3200.0" permlanes="2.0" oneway="1" modes="car" >
			<attributes>
				<attribute name="origid" class="java.lang.String">328427341</attribute>
				<attribute name="type" class="java.lang.String">secondary</attribute>
			</attributes>
		</link>