<?xml version="1.0" encoding="utf-8"?>
<!DOCTYPE population SYSTEM "http://www.matsim.org/files/dtd/population_v6.dtd">

<population>



<!-- ====================================================================== -->

	<person id="person0">
		<plan selected="yes">
			<activity type="home" x="184172.2900476765" y="2493604.3077254687" end_time="08:09:46" >
			</activity>
			<leg mode="taxi">
			</leg>
			<activity type="work" x="184673.96374586108" y="2493322.522257909" end_time="21:09:23" >
			</activity>
			<leg mode="taxi">
			</leg>
			<activity type="home" x="184172.2900476765" y="2493604.3077254687" >
			</activity>
		</plan>

	</person>

<!-- ====================================================================== -->

	<person id="person1">
		<plan selected="yes">
			<activity type="home" x="183155.5487096195" y="2493983.8351421417" end_time="07:46:56" >
			</activity>
			<leg mode="taxi">
			</leg>
			<activity type="work" x="182816.90250639588" y="2493737.9640830015" end_time="21:56:04" >
			</activity>
			<leg mode="taxi">
			</leg>
			<activity type="home" x="183155.5487096195" y="2493983.8351421417" >
			</activity>
		</plan>

	</person>

<!-- ====================================================================== -->

	<person id="person10">
		<plan selected="yes">
			<activity type="home" x="184803.99105408927" y="2493778.423452008" end_time="07:42:07" >
			</activity>
			<leg mode="taxi">
			</leg>
			<activity type="work" x="184755.22619061393" y="2493817.9417156107" end_time="17:30:23" >
			</activity>
			<leg mode="taxi">
			</leg>
			<activity type="home" x="184803.99105408927" y="2493778.423452008" >
			</activity>
		</plan>

	</person>

<!-- ====================================================================== -->

	<person id="person11">
		<plan selected="yes">
			<activity type="home" x="184777.3168846252" y="2492666.7672934276" end_time="08:05:07" >
			</activity>
			<leg mode="taxi">
			</leg>
			<activity type="work" x="182697.6833513155" y="2493996.2062873268" end_time="18:05:37" >
			</activity>
			<leg mode="taxi">
			</leg>
			<activity type="home" x="184777.3168846252" y="2492666.7672934276" >
			</activity>
		</plan>

	</person>

<!-- ====================================================================== -->

	<person id="person12">
		<plan selected="yes">
			<activity type="home" x="182899.55100309555" y="2493420.259517768" end_time="07:10:48" >
			</activity>
			<leg mode="taxi">
			</leg>
			<activity type="work" x="182493.73482275713" y="2493765.4029806093" end_time="21:48:28" >
			</activity>
			<leg mode="taxi">
			</leg>
			<activity type="home" x="182899.55100309555" y="2493420.259517768" >
			</activity>
		</plan>

	</person>

<!-- ====================================================================== -->

	<person id="person13">
		<plan selected="yes">
			<activity type="home" x="183720.92526827106" y="2492410.554720094" end_time="07:43:36" >
			</activity>
			<leg mode="taxi">
			</leg>
			<activity type="work" x="184219.32878803922" y="2492655.165391522" end_time="20:46:54" >
			</activity>
			<leg mode="taxi">
			</leg>
			<activity type="home" x="183720.92526827106" y="2492410.554720094" >
			</activity>
		</plan>

	</person>

<!-- ====================================================================== -->

	<person id="person14">
		<plan selected="yes">
			<activity type="home" x="183266.85225776795" y="2492804.469026904" end_time="08:30:51" >
			</activity>
			<leg mode="taxi">
			</leg>
			<activity type="work" x="182877.5588667795" y="2493292.207292799" end_time="18:09:03" >
			</activity>
			<leg mode="taxi">
			</leg>
			<activity type="home" x="183266.85225776795" y="2492804.469026904" >
			</activity>
		</plan>

	</person>

<!-- ====================================================================== -->

	<person id="person15">
		<plan selected="yes">
			<activity type="home" x="183135.58561627695" y="2492751.9366277163" end_time="07:11:29" >
			</activity>
			<leg mode="taxi">
			</leg>
			<activity type="work" x="183719.08919765995" y="2494170.8666107934" end_time="17:07:26" >
			</activity>
			<leg mode="taxi">
			</leg>
			<activity type="home" x="183135.58561627695" y="2492751.9366277163" >
			</activity>
		</plan>

	</person>

<!-- ====================================================================== -->

	<person id="person16">
		<plan selected="yes">
			<activity type="home" x="184875.6905662691" y="2492516.53893313" end_time="07:27:58" >
			</activity>
			<leg mode="taxi">
			</leg>
			<activity type="work" x="182709.78440869664" y="2493341.5792748416" end_time="16:07:02" >
			</activity>
			<leg mode="taxi">
			</leg>
			<activity type="home" x="184875.6905662691" y="2492516.53893313" >
			</activity>
		</plan>

	</person>

<!-- ====================================================================== -->

	<person id="person17">
		<plan selected="yes">
			<activity type="home" x="183580.80357312836" y="2493379.5477800705" end_time="08:06:58" >
			</activity>
			<leg mode="taxi">
			</leg>
			<activity type="work" x="184215.60996816974" y="2493839.4084215895" end_time="18:56:35" >
			</activity>
			<leg mode="taxi">
			</leg>
			<activity type="home" x="183580.80357312836" y="2493379.5477800705" >
			</activity>
		</plan>

	</person>

<!-- ====================================================================== -->

	<person id="person18">
		<plan selected="yes">
			<activity type="home" x="182498.3684638254" y="2494049.040463262" end_time="07:07:41" >
			</activity>
			<leg mode="taxi">
			</leg>
			<activity type="work" x="182591.09751081534" y="2494059.83372855" end_time="18:53:28" >
			</activity>
			<leg mode="taxi">
			</leg>
			<activity type="home" x="182498.3684638254" y="2494049.040463262" >
			</activity>
		</plan>

	</person>

<!-- ====================================================================== -->

	<person id="person19">
		<plan selected="yes">
			<activity type="home" x="183040.9921481726" y="2493119.020175376" end_time="08:42:38" >
			</activity>
			<leg mode="taxi">
			</leg>
			<activity type="work" x="184375.24470326977" y="2493649.024628072" end_time="19:34:57" >
			</activity>
			<leg mode="taxi">
			</leg>
			<activity type="home" x="183040.9921481726" y="2493119.020175376" >
			</activity>
		</plan>

	</person>

<!-- ====================================================================== -->

	<person id="person2">
		<plan selected="yes">
			<activity type="home" x="182547.428119799" y="2493184.3925549355" end_time="10:25:48" >
			</activity>
			<leg mode="taxi">
			</leg>
			<activity type="work" x="183199.22506774415" y="2492416.881578458" end_time="16:46:44" >
			</activity>
			<leg mode="taxi">
			</leg>
			<activity type="home" x="182547.428119799" y="2493184.3925549355" >
			</activity>
		</plan>

	</person>

<!-- ====================================================================== -->

	<person id="person20">
		<plan selected="yes">
			<activity type="home" x="182596.2663738828" y="2493805.5988495923" end_time="09:26:10" >
			</activity>
			<leg mode="taxi">
			</leg>
			<activity type="work" x="183356.79508647774" y="2492642.4080269076" end_time="23:56:48" >
			</activity>
			<leg mode="taxi">
			</leg>
			<activity type="home" x="182596.2663738828" y="2493805.5988495923" >
			</activity>
		</plan>

	</person>

<!-- ====================================================================== -->

	<person id="person21">
		<plan selected="yes">
			<activity type="home" x="183084.21819964508" y="2492824.658350177" end_time="08:41:52" >
			</activity>
			<leg mode="taxi">
			</leg>
			<activity type="work" x="183791.560796782" y="2493638.8405312756" end_time="19:43:25" >
			</activity>
			<leg mode="taxi">
			</leg>
			<activity type="home" x="183084.21819964508" y="2492824.658350177" >
			</activity>
		</plan>

	</person>

<!-- ====================================================================== -->

	<person id="person22">
		<plan selected="yes">
			<activity type="home" x="182912.67358806278" y="2493647.9388395064" end_time="07:41:05" >
			</activity>
			<leg mode="taxi">
			</leg>
			<activity type="work" x="183554.37459978825" y="2493525.726742509" end_time="20:41:27" >
			</activity>
			<leg mode="taxi">
			</leg>
			<activity type="home" x="182912.67358806278" y="2493647.9388395064" >
			</activity>
		</plan>

	</person>

<!-- ====================================================================== -->

	<person id="person23">
		<plan selected="yes">
			<activity type="home" x="183077.67621874085" y="2493011.8952734075" end_time="07:22:58" >
			</activity>
			<leg mode="taxi">
			</leg>
			<activity type="work" x="183054.3871985139" y="2492320.885471251" end_time="19:32:51" >
			</activity>
			<leg mode="taxi">
			</leg>
			<activity type="home" x="183077.67621874085" y="2493011.8952734075" >
			</activity>
		</plan>

	</person>

<!-- ====================================================================== -->

	<person id="person24">
		<plan selected="yes">
			<activity type="home" x="183840.85593930774" y="2492443.6275156355" end_time="09:36:09" >
			</activity>
			<leg mode="taxi">
			</leg>
			<activity type="work" x="184827.67166457872" y="2493162.4914126736" end_time="22:24:16" >
			</activity>
			<leg mode="taxi">
			</leg>
			<activity type="home" x="183840.85593930774" y="2492443.6275156355" >
			</activity>
		</plan>

	</person>

<!-- ====================================================================== -->

	<person id="person25">
		<plan selected="yes">
			<activity type="home" x="182496.1287208043" y="2492985.5522448616" end_time="08:36:45" >
			</activity>
			<leg mode="taxi">
			</leg>
			<activity type="work" x="184544.71061259208" y="2493222.362093744" end_time="17:06:21" >
			</activity>
			<leg mode="taxi">
			</leg>
			<activity type="home" x="182496.1287208043" y="2492985.5522448616" >
			</activity>
		</plan>

	</person>

<!-- ====================================================================== -->

	<person id="person26">
		<plan selected="yes">
			<activity type="home" x="183737.98564259603" y="2492710.9525896003" end_time="09:02:44" >
			</activity>
			<leg mode="taxi">
			</leg>
			<activity type="work" x="182943.98417385036" y="2493690.7848893655" end_time="26:12:25" >
			</activity>
			<leg mode="taxi">
			</leg>
			<activity type="home" x="183737.98564259603" y="2492710.9525896003" >
			</activity>
		</plan>

	</person>

<!-- ====================================================================== -->

	<person id="person27">
		<plan selected="yes">
			<activity type="home" x="184709.12633339065" y="2493077.806150987" end_time="10:17:59" >
			</activity>
			<leg mode="taxi">
			</leg>
			<activity type="work" x="183157.73633827374" y="2492638.5663281116" end_time="16:59:57" >
			</activity>
			<leg mode="taxi">
			</leg>
			<activity type="home" x="184709.12633339065" y="2493077.806150987" >
			</activity>
		</plan>

	</person>

<!-- ====================================================================== -->

	<person id="person28">
		<plan selected="yes">
			<activity type="home" x="182869.49977994515" y="2493361.8024072186" end_time="07:22:57" >
			</activity>
			<leg mode="taxi">
			</leg>
			<activity type="work" x="184798.1266286047" y="2493713.344652843" end_time="15:04:15" >
			</activity>
			<leg mode="taxi">
			</leg>
			<activity type="home" x="182869.49977994515" y="2493361.8024072186" >
			</activity>
		</plan>

	</person>

<!-- ====================================================================== -->

	<person id="person29">
		<plan selected="yes">
			<activity type="home" x="183857.05408963392" y="2492729.648831602" end_time="05:46:28" >
			</activity>
			<leg mode="taxi">
			</leg>
			<activity type="work" x="183879.28315959693" y="2493325.668609372" end_time="14:54:12" >
			</activity>
			<leg mode="taxi">
			</leg>
			<activity type="home" x="183857.05408963392" y="2492729.648831602" >
			</activity>
		</plan>

	</person>

<!-- ====================================================================== -->

	<person id="person3">
		<plan selected="yes">
			<activity type="home" x="183160.89975558652" y="2493881.848332462" end_time="09:32:30" >
			</activity>
			<leg mode="taxi">
			</leg>
			<activity type="work" x="184415.9685861819" y="2493977.1988271168" end_time="18:27:27" >
			</activity>
			<leg mode="taxi">
			</leg>
			<activity type="home" x="183160.89975558652" y="2493881.848332462" >
			</activity>
		</plan>

	</person>

<!-- ====================================================================== -->

	<person id="person30">
		<plan selected="yes">
			<activity type="home" x="184101.5952708336" y="2492356.7441734974" end_time="07:34:27" >
			</activity>
			<leg mode="taxi">
			</leg>
			<activity type="work" x="183266.33249080158" y="2492737.1598178428" end_time="18:51:51" >
			</activity>
			<leg mode="taxi">
			</leg>
			<activity type="home" x="184101.5952708336" y="2492356.7441734974" >
			</activity>
		</plan>

	</person>

<!-- ====================================================================== -->

	<person id="person31">
		<plan selected="yes">
			<activity type="home" x="183981.77367701288" y="2492572.986559332" end_time="07:36:57" >
			</activity>
			<leg mode="taxi">
			</leg>
			<activity type="work" x="184596.09214319324" y="2493985.5216557053" end_time="19:55:05" >
			</activity>
			<leg mode="taxi">
			</leg>
			<activity type="home" x="183981.77367701288" y="2492572.986559332" >
			</activity>
		</plan>

	</person>

<!-- ====================================================================== -->

	<person id="person32">
		<plan selected="yes">
			<activity type="home" x="184037.5628636409" y="2493641.8973648516" end_time="08:34:28" >
			</activity>
			<leg mode="taxi">
			</leg>
			<activity type="work" x="183544.79612017932" y="2493944.9651799286" end_time="21:04:59" >
			</activity>
			<leg mode="taxi">
			</leg>
			<activity type="home" x="184037.5628636409" y="2493641.8973648516" >
			</activity>
		</plan>

	</person>

<!-- ====================================================================== -->

	<person id="person33">
		<plan selected="yes">
			<activity type="home" x="183679.27901723346" y="2492312.415746737" end_time="07:03:26" >
			</activity>
			<leg mode="taxi">
			</leg>
			<activity type="work" x="184616.75468388037" y="2492728.4604347465" end_time="17:08:14" >
			</activity>
			<leg mode="taxi">
			</leg>
			<activity type="home" x="183679.27901723346" y="2492312.415746737" >
			</activity>
		</plan>

	</person>

<!-- ====================================================================== -->

	<person id="person34">
		<plan selected="yes">
			<activity type="home" x="183620.9690402072" y="2492640.09043119" end_time="08:34:17" >
			</activity>
			<leg mode="taxi">
			</leg>
			<activity type="work" x="184336.01650477247" y="2494176.5776573434" end_time="08:34:22" >
			</activity>
			<leg mode="taxi">
			</leg>
			<activity type="home" x="183620.9690402072" y="2492640.09043119" >
			</activity>
		</plan>

	</person>

<!-- ====================================================================== -->

	<person id="person35">
		<plan selected="yes">
			<activity type="home" x="184117.01765241337" y="2493498.5710758264" end_time="07:59:42" >
			</activity>
			<leg mode="taxi">
			</leg>
			<activity type="work" x="183314.48602250358" y="2492690.9776030546" end_time="20:47:04" >
			</activity>
			<leg mode="taxi">
			</leg>
			<activity type="home" x="184117.01765241337" y="2493498.5710758264" >
			</activity>
		</plan>

	</person>

<!-- ====================================================================== -->

	<person id="person36">
		<plan selected="yes">
			<activity type="home" x="183391.6325695028" y="2493555.0978956795" end_time="06:29:46" >
			</activity>
			<leg mode="taxi">
			</leg>
			<activity type="work" x="183966.19693394087" y="2493463.857320163" end_time="21:30:08" >
			</activity>
			<leg mode="taxi">
			</leg>
			<activity type="home" x="183391.6325695028" y="2493555.0978956795" >
			</activity>
		</plan>

	</person>

<!-- ====================================================================== -->

	<person id="person37">
		<plan selected="yes">
			<activity type="home" x="184672.15936523065" y="2492448.8384632342" end_time="09:07:18" >
			</activity>
			<leg mode="taxi">
			</leg>
			<activity type="work" x="183504.93142893893" y="2492844.036499732" end_time="14:10:41" >
			</activity>
			<leg mode="taxi">
			</leg>
			<activity type="home" x="184672.15936523065" y="2492448.8384632342" >
			</activity>
		</plan>

	</person>

<!-- ====================================================================== -->

	<person id="person38">
		<plan selected="yes">
			<activity type="home" x="183740.52287483733" y="2492567.229980243" end_time="05:31:04" >
			</activity>
			<leg mode="taxi">
			</leg>
			<activity type="work" x="182972.36576981083" y="2493367.506170553" end_time="15:22:55" >
			</activity>
			<leg mode="taxi">
			</leg>
			<activity type="home" x="183740.52287483733" y="2492567.229980243" >
			</activity>
		</plan>

	</person>

<!-- ====================================================================== -->

	<person id="person39">
		<plan selected="yes">
			<activity type="home" x="183128.16330948475" y="2493906.560808796" end_time="08:02:03" >
			</activity>
			<leg mode="taxi">
			</leg>
			<activity type="work" x="182563.54763716357" y="2492363.121231745" end_time="15:31:16" >
			</activity>
			<leg mode="taxi">
			</leg>
			<activity type="home" x="183128.16330948475" y="2493906.560808796" >
			</activity>
		</plan>

	</person>

<!-- ====================================================================== -->

	<person id="person4">
		<plan selected="yes">
			<activity type="home" x="184484.0155049927" y="2493197.8733900744" end_time="08:45:01" >
			</activity>
			<leg mode="taxi">
			</leg>
			<activity type="work" x="183497.842271693" y="2493479.8698021425" end_time="17:19:08" >
			</activity>
			<leg mode="taxi">
			</leg>
			<activity type="home" x="184484.0155049927" y="2493197.8733900744" >
			</activity>
		</plan>

	</person>

<!-- ====================================================================== -->

	<person id="person40">
		<plan selected="yes">
			<activity type="home" x="183859.28260244193" y="2492330.811938713" end_time="07:19:57" >
			</activity>
			<leg mode="taxi">
			</leg>
			<activity type="work" x="182587.86023317854" y="2493090.7558856346" end_time="15:34:51" >
			</activity>
			<leg mode="taxi">
			</leg>
			<activity type="home" x="183859.28260244193" y="2492330.811938713" >
			</activity>
		</plan>

	</person>

<!-- ====================================================================== -->

	<person id="person41">
		<plan selected="yes">
			<activity type="home" x="183112.11739712875" y="2492369.8107170314" end_time="08:04:51" >
			</activity>
			<leg mode="taxi">
			</leg>
			<activity type="work" x="184489.06737296874" y="2492530.534737644" end_time="21:16:21" >
			</activity>
			<leg mode="taxi">
			</leg>
			<activity type="home" x="183112.11739712875" y="2492369.8107170314" >
			</activity>
		</plan>

	</person>

<!-- ====================================================================== -->

	<person id="person42">
		<plan selected="yes">
			<activity type="home" x="183616.291450906" y="2494003.5643526306" end_time="07:40:12" >
			</activity>
			<leg mode="taxi">
			</leg>
			<activity type="work" x="184132.81254807566" y="2492812.373438471" end_time="20:58:47" >
			</activity>
			<leg mode="taxi">
			</leg>
			<activity type="home" x="183616.291450906" y="2494003.5643526306" >
			</activity>
		</plan>

	</person>

<!-- ====================================================================== -->

	<person id="person43">
		<plan selected="yes">
			<activity type="home" x="184804.89968700823" y="2493744.5734246434" end_time="09:24:37" >
			</activity>
			<leg mode="taxi">
			</leg>
			<activity type="work" x="184928.72440102868" y="2493694.3207959454" end_time="17:21:13" >
			</activity>
			<leg mode="taxi">
			</leg>
			<activity type="home" x="184804.89968700823" y="2493744.5734246434" >
			</activity>
		</plan>

	</person>

<!-- ====================================================================== -->

	<person id="person44">
		<plan selected="yes">
			<activity type="home" x="183294.52836653375" y="2493893.7045178344" end_time="06:53:30" >
			</activity>
			<leg mode="taxi">
			</leg>
			<activity type="work" x="182540.50762454208" y="2493584.303338579" end_time="16:28:31" >
			</activity>
			<leg mode="taxi">
			</leg>
			<activity type="home" x="183294.52836653375" y="2493893.7045178344" >
			</activity>
		</plan>

	</person>

<!-- ====================================================================== -->

	<person id="person45">
		<plan selected="yes">
			<activity type="home" x="182679.0637194718" y="2493406.6898000706" end_time="08:09:38" >
			</activity>
			<leg mode="taxi">
			</leg>
			<activity type="work" x="183444.1741325836" y="2492753.552729353" end_time="12:48:42" >
			</activity>
			<leg mode="taxi">
			</leg>
			<activity type="home" x="182679.0637194718" y="2493406.6898000706" >
			</activity>
		</plan>

	</person>

<!-- ====================================================================== -->

	<person id="person46">
		<plan selected="yes">
			<activity type="home" x="184183.595037935" y="2493582.976933074" end_time="08:30:32" >
			</activity>
			<leg mode="taxi">
			</leg>
			<activity type="work" x="182577.78829589416" y="2492954.1333070127" end_time="15:36:48" >
			</activity>
			<leg mode="taxi">
			</leg>
			<activity type="home" x="184183.595037935" y="2493582.976933074" >
			</activity>
		</plan>

	</person>

<!-- ====================================================================== -->

	<person id="person47">
		<plan selected="yes">
			<activity type="home" x="184722.68963883613" y="2493609.643773646" end_time="08:45:36" >
			</activity>
			<leg mode="taxi">
			</leg>
			<activity type="work" x="183710.67105379232" y="2492715.602484524" end_time="22:24:39" >
			</activity>
			<leg mode="taxi">
			</leg>
			<activity type="home" x="184722.68963883613" y="2493609.643773646" >
			</activity>
		</plan>

	</person>

<!-- ====================================================================== -->

	<person id="person48">
		<plan selected="yes">
			<activity type="home" x="183721.60248661792" y="2493591.731019218" end_time="07:37:48" >
			</activity>
			<leg mode="taxi">
			</leg>
			<activity type="work" x="182647.7490439158" y="2492765.429417166" end_time="17:08:22" >
			</activity>
			<leg mode="taxi">
			</leg>
			<activity type="home" x="183721.60248661792" y="2493591.731019218" >
			</activity>
		</plan>

	</person>

<!-- ====================================================================== -->

	<person id="person49">
		<plan selected="yes">
			<activity type="home" x="183937.50874942588" y="2494082.77939659" end_time="08:49:23" >
			</activity>
			<leg mode="taxi">
			</leg>
			<activity type="work" x="182627.5887952932" y="2493339.9140648753" end_time="22:02:08" >
			</activity>
			<leg mode="taxi">
			</leg>
			<activity type="home" x="183937.50874942588" y="2494082.77939659" >
			</activity>
		</plan>

	</person>

<!-- ====================================================================== -->

	<person id="person5">
		<plan selected="yes">
			<activity type="home" x="184322.12062047035" y="2492650.3946708045" end_time="09:13:29" >
			</activity>
			<leg mode="taxi">
			</leg>
			<activity type="work" x="183271.6862874184" y="2493824.075656672" end_time="19:32:16" >
			</activity>
			<leg mode="taxi">
			</leg>
			<activity type="home" x="184322.12062047035" y="2492650.3946708045" >
			</activity>
		</plan>

	</person>

<!-- ====================================================================== -->

	<person id="person6">
		<plan selected="yes">
			<activity type="home" x="182691.30672355462" y="2493167.32586077" end_time="06:59:46" >
			</activity>
			<leg mode="taxi">
			</leg>
			<activity type="work" x="183510.93223668754" y="2492350.705845215" end_time="18:17:22" >
			</activity>
			<leg mode="taxi">
			</leg>
			<activity type="home" x="182691.30672355462" y="2493167.32586077" >
			</activity>
		</plan>

	</person>

<!-- ====================================================================== -->

	<person id="person7">
		<plan selected="yes">
			<activity type="home" x="183020.04030291914" y="2492595.928589425" end_time="08:27:30" >
			</activity>
			<leg mode="taxi">
			</leg>
			<activity type="work" x="183394.79882671515" y="2493051.0957769286" end_time="16:46:38" >
			</activity>
			<leg mode="taxi">
			</leg>
			<activity type="home" x="183020.04030291914" y="2492595.928589425" >
			</activity>
		</plan>

	</person>

<!-- ====================================================================== -->

	<person id="person8">
		<plan selected="yes">
			<activity type="home" x="182701.50176567992" y="2492925.4671005416" end_time="08:31:19" >
			</activity>
			<leg mode="taxi">
			</leg>
			<activity type="work" x="182618.37490700482" y="2493962.8147359528" end_time="21:09:18" >
			</activity>
			<leg mode="taxi">
			</leg>
			<activity type="home" x="182701.50176567992" y="2492925.4671005416" >
			</activity>
		</plan>

	</person>

<!-- ====================================================================== -->

	<person id="person9">
		<plan selected="yes">
			<activity type="home" x="182838.3216651834" y="2493486.3802672094" end_time="08:02:14" >
			</activity>
			<leg mode="taxi">
			</leg>
			<activity type="work" x="183246.92776461536" y="2493314.9318083553" end_time="19:57:54" >
			</activity>
			<leg mode="taxi">
			</leg>
			<activity type="home" x="182838.3216651834" y="2493486.3802672094" >
			</activity>
		</plan>

	</person>

<!-- ====================================================================== -->

</population>
